!-Generator IDFEditor 1.51
!-Option SortedOrder

!-NOTE: All comments with '!-' are ignored by the IDFEditor and are generated automatically.
!-      Use '!' comments if they need to be retained when using the IDFEditor.


!-   ===========  ALL OBJECTS IN CLASS: VERSION ===========

Version,
    9.5;                     !- Version Identifier


!-   ===========  ALL OBJECTS IN CLASS: SIMULATIONCONTROL ===========

SimulationControl,
    No,                      !- Do Zone Sizing Calculation
    No,                      !- Do System Sizing Calculation
    No,                      !- Do Plant Sizing Calculation
    No,                      !- Run Simulation for Sizing Periods
    Yes,                     !- Run Simulation for Weather File Run Periods
    No,                      !- Do HVAC Sizing Simulation for Sizing Periods
    1;                       !- Maximum Number of HVAC Sizing Simulation Passes


!-   ===========  ALL OBJECTS IN CLASS: BUILDING ===========

Building,
    Building 1,              !- Name
    ,                        !- North Axis {deg}
    ,                        !- Terrain
    ,                        !- Loads Convergence Tolerance Value {W}
    ,                        !- Temperature Convergence Tolerance Value {deltaC}
    ,                        !- Solar Distribution
    ,                        !- Maximum Number of Warmup Days
    ;                        !- Minimum Number of Warmup Days


!-   ===========  ALL OBJECTS IN CLASS: SHADOWCALCULATION ===========

ShadowCalculation,
    PolygonClipping,         !- Shading Calculation Method
    Periodic,                !- Shading Calculation Update Frequency Method
    20,                      !- Shading Calculation Update Frequency
    15000,                   !- Maximum Figures in Shadow Overlap Calculations
    SutherlandHodgman;       !- Polygon Clipping Algorithm


!-   ===========  ALL OBJECTS IN CLASS: HEATBALANCEALGORITHM ===========

HeatBalanceAlgorithm,
    ConductionTransferFunction,  !- Algorithm
    200;                     !- Surface Temperature Upper Limit {C}


!-   ===========  ALL OBJECTS IN CLASS: TIMESTEP ===========

Timestep,
    6;                       !- Number of Timesteps per Hour


!-   ===========  ALL OBJECTS IN CLASS: SITE:LOCATION ===========

Site:Location,
    Temixco,                 !- Name
    18.51,                   !- Latitude {deg}
    -99.14,                  !- Longitude {deg}
    -6,                      !- Time Zone {hr}
    1219;                    !- Elevation {m}


!-   ===========  ALL OBJECTS IN CLASS: RUNPERIOD ===========

RunPeriod,
    Run Period 1,            !- Name
    5,                       !- Begin Month
    3,                       !- Begin Day of Month
    2006,                    !- Begin Year
    6,                       !- End Month
    25,                      !- End Day of Month
    2006,                    !- End Year
    Wednesday,               !- Day of Week for Start Day
    No,                      !- Use Weather File Holidays and Special Days
    No,                      !- Use Weather File Daylight Saving Period
    No,                      !- Apply Weekend Holiday Rule
    Yes,                     !- Use Weather File Rain Indicators
    Yes;                     !- Use Weather File Snow Indicators


!-   ===========  ALL OBJECTS IN CLASS: SITE:GROUNDTEMPERATURE:BUILDINGSURFACE ===========

Site:GroundTemperature:BuildingSurface,
    21,                      !- January Ground Temperature {C}
    21,                      !- February Ground Temperature {C}
    21,                      !- March Ground Temperature {C}
    21,                      !- April Ground Temperature {C}
    21,                      !- May Ground Temperature {C}
    21,                      !- June Ground Temperature {C}
    21,                      !- July Ground Temperature {C}
    21,                      !- August Ground Temperature {C}
    21,                      !- September Ground Temperature {C}
    21,                      !- October Ground Temperature {C}
    21,                      !- November Ground Temperature {C}
    21;                      !- December Ground Temperature {C}


!-   ===========  ALL OBJECTS IN CLASS: SCHEDULETYPELIMITS ===========

ScheduleTypeLimits,
    Equipos,                 !- Name
    ,                        !- Lower Limit Value
    ,                        !- Upper Limit Value
    Discrete,                !- Numeric Type
    Percent;                 !- Unit Type

ScheduleTypeLimits,
    Persona,                 !- Name
    ,                        !- Lower Limit Value
    ,                        !- Upper Limit Value
    Discrete,                !- Numeric Type
    Percent;                 !- Unit Type

ScheduleTypeLimits,
    Activity,                !- Name
    ,                        !- Lower Limit Value
    ,                        !- Upper Limit Value
    Discrete,                !- Numeric Type
    ActivityLevel;           !- Unit Type


!-   ===========  ALL OBJECTS IN CLASS: SCHEDULE:COMPACT ===========

Schedule:Compact,
    horarioequipo1,          !- Name
    Equipos,                 !- Schedule Type Limits Name
    Through: 12/31,          !- Field 1
    For: Weekdays,           !- Field 2
    Until:9:00,              !- Field 3
     .1566,                  !- Field 4
    Until:18:00,             !- Field 5
     1,                      !- Field 6
    Until:24:00,             !- Field 7
     .1566,                  !- Field 8
    For:AllOtherDays,        !- Field 9
    Until:24:00,             !- Field 10
     .1566;                  !- Field 11

Schedule:Compact,
    horarioequipo2,          !- Name
    Equipos,                 !- Schedule Type Limits Name
    Through: 12/31,          !- Field 1
    For: Weekdays,           !- Field 2
    Until:9:00,              !- Field 3
     .2831,                  !- Field 4
    Until:18:00,             !- Field 5
     1,                      !- Field 6
    Until:24:00,             !- Field 7
     .2831,                  !- Field 8
    For:AllOtherDays,        !- Field 9
    Until:24:00,             !- Field 10
     .2831;                  !- Field 11

Schedule:Compact,
    horarioequipo3,          !- Name
    Equipos,                 !- Schedule Type Limits Name
    Through: 12/31,          !- Field 1
    For: AllDays,            !- Field 2
    Until:24:00,             !- Field 3
     1;                      !- Field 4

Schedule:Compact,
    horarioequipo4,          !- Name
    Equipos,                 !- Schedule Type Limits Name
    Through: 12/31,          !- Field 1
    For: Weekdays,           !- Field 2
    Until:9:00,              !- Field 3
     .0465,                  !- Field 4
    Until:18:00,             !- Field 5
     1,                      !- Field 6
    Until:24:00,             !- Field 7
     .0465,                  !- Field 8
    For:AllOtherDays,        !- Field 9
    Until:24:00,             !- Field 10
     .0465;                  !- Field 11

Schedule:Compact,
    jorge,                   !- Name
    Persona,                 !- Schedule Type Limits Name
    Through:12/31,           !- Field 1
    For: Weekdays,           !- Field 2
    Until:9:00,              !- Field 3
     0,                      !- Field 4
    Until:18:00,             !- Field 5
     1,                      !- Field 6
    Until:24:00,             !- Field 7
     0,                      !- Field 8
    For: AllOtherDays,       !- Field 9
    Until:24:00,             !- Field 10
     0;                      !- Field 11

Schedule:Compact,
    actividad,               !- Name
    Activity,                !- Schedule Type Limits Name
    Through:12/31,           !- Field 1
    For:AllDays,             !- Field 2
    Until:9:00,              !- Field 3
     72,                     !- Field 4
    Until:17:00,             !- Field 5
     117,                    !- Field 6
    Until:18:00,             !- Field 7
     108,                    !- Field 8
    Until:24:00,             !- Field 9
     72;                     !- Field 10


!-   ===========  ALL OBJECTS IN CLASS: SCHEDULE:CONSTANT ===========

Schedule:Constant,
    Continuo,                !- Name
    Equipos,                 !- Schedule Type Limits Name
    0;                       !- Hourly Value


!-   ===========  ALL OBJECTS IN CLASS: MATERIAL ===========

Material,
    Tabique,                 !- Name
    MediumRough,             !- Roughness
    0.14,                    !- Thickness {m}
    0.7,                     !- Conductivity {W/m-K}
    1970,                    !- Density {kg/m3}
    800,                     !- Specific Heat {J/kg-K}
    0.9,                     !- Thermal Absorptance
    0.65,                    !- Solar Absorptance
    0.65;                    !- Visible Absorptance

Material,
    CAD,                     !- Name
    Rough,                   !- Roughness
    0.1,                     !- Thickness {m}
    2,                       !- Conductivity {W/m-K}
    2400,                    !- Density {kg/m3}
    1000,                    !- Specific Heat {J/kg-K}
    0.9,                     !- Thermal Absorptance
    0.6,                     !- Solar Absorptance
    0.6;                     !- Visible Absorptance

Material,
    MorteroAltaDensidad,     !- Name
    Rough,                   !- Roughness
    0.1,                     !- Thickness {m}
    0.88,                    !- Conductivity {W/m-K}
    2800,                    !- Density {kg/m3}
    896,                     !- Specific Heat {J/kg-K}
    0.9,                     !- Thermal Absorptance
    0.2,                     !- Solar Absorptance
    0.2;                     !- Visible Absorptance


!-   ===========  ALL OBJECTS IN CLASS: WINDOWMATERIAL:GLAZING ===========

WindowMaterial:Glazing,
    Clear 3mm,               !- Name
    SpectralAverage,         !- Optical Data Type
    ,                        !- Window Glass Spectral Data Set Name
    0.00299999999999999,     !- Thickness {m}
    0.837,                   !- Solar Transmittance at Normal Incidence
    0.075,                   !- Front Side Solar Reflectance at Normal Incidence
    0,                       !- Back Side Solar Reflectance at Normal Incidence
    0.898,                   !- Visible Transmittance at Normal Incidence
    0.081,                   !- Front Side Visible Reflectance at Normal Incidence
    0,                       !- Back Side Visible Reflectance at Normal Incidence
    0,                       !- Infrared Transmittance at Normal Incidence
    0.84,                    !- Front Side Infrared Hemispherical Emissivity
    0.84,                    !- Back Side Infrared Hemispherical Emissivity
    0.9,                     !- Conductivity {W/m-K}
    1,                       !- Dirt Correction Factor for Solar and Visible Transmittance
    No;                      !- Solar Diffusing


!-   ===========  ALL OBJECTS IN CLASS: WINDOWMATERIAL:BLIND ===========

WindowMaterial:Blind,
    Window Material Blind 1, !- Name
    Horizontal,              !- Slat Orientation
    0.025,                   !- Slat Width {m}
    0.01875,                 !- Slat Separation {m}
    0.001,                   !- Slat Thickness {m}
    45,                      !- Slat Angle {deg}
    221,                     !- Slat Conductivity {W/m-K}
    0,                       !- Slat Beam Solar Transmittance
    0.5,                     !- Front Side Slat Beam Solar Reflectance
    0.5,                     !- Back Side Slat Beam Solar Reflectance
    0,                       !- Slat Diffuse Solar Transmittance
    0.5,                     !- Front Side Slat Diffuse Solar Reflectance
    0.5,                     !- Back Side Slat Diffuse Solar Reflectance
    0,                       !- Slat Beam Visible Transmittance
    0.5,                     !- Front Side Slat Beam Visible Reflectance
    0.5,                     !- Back Side Slat Beam Visible Reflectance
    0,                       !- Slat Diffuse Visible Transmittance
    0.5,                     !- Front Side Slat Diffuse Visible Reflectance
    0.5,                     !- Back Side Slat Diffuse Visible Reflectance
    0,                       !- Slat Infrared Hemispherical Transmittance
    0.9,                     !- Front Side Slat Infrared Hemispherical Emissivity
    0.9,                     !- Back Side Slat Infrared Hemispherical Emissivity
    0.05,                    !- Blind to Glass Distance {m}
    0.5,                     !- Blind Top Opening Multiplier
    0.5,                     !- Blind Bottom Opening Multiplier
    0.5,                     !- Blind Left Side Opening Multiplier
    0.5,                     !- Blind Right Side Opening Multiplier
    0,                       !- Minimum Slat Angle {deg}
    180;                     !- Maximum Slat Angle {deg}


!-   ===========  ALL OBJECTS IN CLASS: CONSTRUCTION ===========

Construction,
    Interior Window,         !- Name
    Clear 3mm;               !- Outside Layer

Construction,
    Tabique,                 !- Name
    Tabique;                 !- Outside Layer

Construction,
    CAD,                     !- Name
    CAD;                     !- Outside Layer

Construction,
    Mortero,                 !- Name
    MorteroAltaDensidad;     !- Outside Layer


!-   ===========  ALL OBJECTS IN CLASS: GLOBALGEOMETRYRULES ===========

GlobalGeometryRules,
    UpperLeftCorner,         !- Starting Vertex Position
    Counterclockwise,        !- Vertex Entry Direction
    Relative,                !- Coordinate System
    Relative,                !- Daylighting Reference Point Coordinate System
    Relative;                !- Rectangular Surface Coordinate System


!-   ===========  ALL OBJECTS IN CLASS: ZONE ===========

Zone,
    TZCub5,                  !- Name
    -0,                      !- Direction of Relative North {deg}
    -5.49630482425276,       !- X Origin {m}
    11.8954971819012,        !- Y Origin {m}
    0;                       !- Z Origin {m}

Zone,
    TZCub6,                  !- Name
    -0,                      !- Direction of Relative North {deg}
    1.50369517574724,        !- X Origin {m}
    5.53549718190122,        !- Y Origin {m}
    0;                       !- Z Origin {m}

Zone,
    TZCub7,                  !- Name
    ,                        !- Direction of Relative North {deg}
    1.50369517574724,        !- X Origin {m}
    5.53549718190122,        !- Y Origin {m}
    0;                       !- Z Origin {m}

Zone,
    TZLaboratorios,          !- Name
    -0,                      !- Direction of Relative North {deg}
    7.00369517574724,        !- X Origin {m}
    11.8954971819012,        !- Y Origin {m}
    0;                       !- Z Origin {m}

Zone,
    TZTechoCub5,             !- Name
    -0,                      !- Direction of Relative North {deg}
    -1.99630482425276,       !- X Origin {m}
    3.53549718190122,        !- Y Origin {m}
    3;                       !- Z Origin {m}

Zone,
    TZTechoCub6,             !- Name
    -0,                      !- Direction of Relative North {deg}
    -1.99630482425276,       !- X Origin {m}
    12.5954971819012,        !- Y Origin {m}
    3;                       !- Z Origin {m}

Zone,
    TZTechoCub7,             !- Name
    -0,                      !- Direction of Relative North {deg}
    5.00369517574724,        !- X Origin {m}
    3.53549718190122,        !- Y Origin {m}
    3;                       !- Z Origin {m}


!-   ===========  ALL OBJECTS IN CLASS: ZONELIST ===========

ZoneList,
    189.1-2009 - Office - OpenOffice - CZ4-8,  !- Name
    TZCub5,                  !- Zone 1 Name
    TZCub6,                  !- Zone 2 Name
    TZCub7,                  !- Zone 3 Name
    TZLaboratorios,          !- Zone 4 Name
    TZTechoCub5,             !- Zone 5 Name
    TZTechoCub6,             !- Zone 6 Name
    TZTechoCub7;             !- Zone 7 Name

ZoneList,
    Cubs,                    !- Name
    TZCub7,                  !- Zone 1 Name
    TZCub6,                  !- Zone 2 Name
    TZCub5;                  !- Zone 3 Name


!-   ===========  ALL OBJECTS IN CLASS: BUILDINGSURFACE:DETAILED ===========

BuildingSurface:Detailed,
    ParedCub5Este,           !- Name
    Wall,                    !- Surface Type
    Tabique,                 !- Construction Name
    TZCub5,                  !- Zone Name
    Surface,                 !- Outside Boundary Condition
    ParedCub6Oeste,          !- Outside Boundary Condition Object
    NoSun,                   !- Sun Exposure
    NoWind,                  !- Wind Exposure
    ,                        !- View Factor to Ground
    ,                        !- Number of Vertices
    3.5,                     !- Vertex 1 X-coordinate {m}
    0,                       !- Vertex 1 Y-coordinate {m}
    3.5,                     !- Vertex 1 Z-coordinate {m}
    3.5,                     !- Vertex 2 X-coordinate {m}
    -6.36,                   !- Vertex 2 Y-coordinate {m}
    3,                       !- Vertex 2 Z-coordinate {m}
    3.5,                     !- Vertex 3 X-coordinate {m}
    -6.36,                   !- Vertex 3 Y-coordinate {m}
    0,                       !- Vertex 3 Z-coordinate {m}
    3.5,                     !- Vertex 4 X-coordinate {m}
    0,                       !- Vertex 4 Y-coordinate {m}
    6.41186143763638e-031;   !- Vertex 4 Z-coordinate {m}

BuildingSurface:Detailed,
    ParedCub5Norte,          !- Name
    Wall,                    !- Surface Type
    Tabique,                 !- Construction Name
    TZCub5,                  !- Zone Name
    Outdoors,                !- Outside Boundary Condition
    ,                        !- Outside Boundary Condition Object
    SunExposed,              !- Sun Exposure
    WindExposed,             !- Wind Exposure
    ,                        !- View Factor to Ground
    ,                        !- Number of Vertices
    3.5,                     !- Vertex 1 X-coordinate {m}
    0,                       !- Vertex 1 Y-coordinate {m}
    3.5,                     !- Vertex 1 Z-coordinate {m}
    3.5,                     !- Vertex 2 X-coordinate {m}
    0,                       !- Vertex 2 Y-coordinate {m}
    6.41186143763638e-031,   !- Vertex 2 Z-coordinate {m}
    0,                       !- Vertex 3 X-coordinate {m}
    0,                       !- Vertex 3 Y-coordinate {m}
    6.41186143763638e-031,   !- Vertex 3 Z-coordinate {m}
    0,                       !- Vertex 4 X-coordinate {m}
    0,                       !- Vertex 4 Y-coordinate {m}
    3.5;                     !- Vertex 4 Z-coordinate {m}

BuildingSurface:Detailed,
    ParedCub5Oeste,          !- Name
    Wall,                    !- Surface Type
    Tabique,                 !- Construction Name
    TZCub5,                  !- Zone Name
    Outdoors,                !- Outside Boundary Condition
    ,                        !- Outside Boundary Condition Object
    SunExposed,              !- Sun Exposure
    WindExposed,             !- Wind Exposure
    ,                        !- View Factor to Ground
    ,                        !- Number of Vertices
    0,                       !- Vertex 1 X-coordinate {m}
    0,                       !- Vertex 1 Y-coordinate {m}
    3.5,                     !- Vertex 1 Z-coordinate {m}
    0,                       !- Vertex 2 X-coordinate {m}
    0,                       !- Vertex 2 Y-coordinate {m}
    6.41186143763638e-031,   !- Vertex 2 Z-coordinate {m}
    0,                       !- Vertex 3 X-coordinate {m}
    -6.36,                   !- Vertex 3 Y-coordinate {m}
    0,                       !- Vertex 3 Z-coordinate {m}
    0,                       !- Vertex 4 X-coordinate {m}
    -6.36,                   !- Vertex 4 Y-coordinate {m}
    3;                       !- Vertex 4 Z-coordinate {m}

BuildingSurface:Detailed,
    ParedCub5Sur,            !- Name
    Wall,                    !- Surface Type
    Tabique,                 !- Construction Name
    TZCub5,                  !- Zone Name
    Outdoors,                !- Outside Boundary Condition
    ,                        !- Outside Boundary Condition Object
    SunExposed,              !- Sun Exposure
    WindExposed,             !- Wind Exposure
    ,                        !- View Factor to Ground
    ,                        !- Number of Vertices
    0,                       !- Vertex 1 X-coordinate {m}
    -6.36,                   !- Vertex 1 Y-coordinate {m}
    3,                       !- Vertex 1 Z-coordinate {m}
    0,                       !- Vertex 2 X-coordinate {m}
    -6.36,                   !- Vertex 2 Y-coordinate {m}
    0,                       !- Vertex 2 Z-coordinate {m}
    3.5,                     !- Vertex 3 X-coordinate {m}
    -6.36,                   !- Vertex 3 Y-coordinate {m}
    0,                       !- Vertex 3 Z-coordinate {m}
    3.5,                     !- Vertex 4 X-coordinate {m}
    -6.36,                   !- Vertex 4 Y-coordinate {m}
    3;                       !- Vertex 4 Z-coordinate {m}

BuildingSurface:Detailed,
    Surface 2,               !- Name
    Floor,                   !- Surface Type
    CAD,                     !- Construction Name
    TZCub5,                  !- Zone Name
    Ground,                  !- Outside Boundary Condition
    ,                        !- Outside Boundary Condition Object
    NoSun,                   !- Sun Exposure
    NoWind,                  !- Wind Exposure
    ,                        !- View Factor to Ground
    ,                        !- Number of Vertices
    3.5,                     !- Vertex 1 X-coordinate {m}
    0,                       !- Vertex 1 Y-coordinate {m}
    6.41186143763638e-031,   !- Vertex 1 Z-coordinate {m}
    3.5,                     !- Vertex 2 X-coordinate {m}
    -6.36,                   !- Vertex 2 Y-coordinate {m}
    0,                       !- Vertex 2 Z-coordinate {m}
    0,                       !- Vertex 3 X-coordinate {m}
    -6.36,                   !- Vertex 3 Y-coordinate {m}
    0,                       !- Vertex 3 Z-coordinate {m}
    0,                       !- Vertex 4 X-coordinate {m}
    0,                       !- Vertex 4 Y-coordinate {m}
    6.41186143763638e-031;   !- Vertex 4 Z-coordinate {m}

BuildingSurface:Detailed,
    Surface 44,              !- Name
    Ceiling,                 !- Surface Type
    CAD,                     !- Construction Name
    TZCub5,                  !- Zone Name
    Surface,                 !- Outside Boundary Condition
    Surface 49,              !- Outside Boundary Condition Object
    NoSun,                   !- Sun Exposure
    NoWind,                  !- Wind Exposure
    ,                        !- View Factor to Ground
    ,                        !- Number of Vertices
    3.5,                     !- Vertex 1 X-coordinate {m}
    -6.36,                   !- Vertex 1 Y-coordinate {m}
    3,                       !- Vertex 1 Z-coordinate {m}
    3.5,                     !- Vertex 2 X-coordinate {m}
    0,                       !- Vertex 2 Y-coordinate {m}
    3.5,                     !- Vertex 2 Z-coordinate {m}
    0,                       !- Vertex 3 X-coordinate {m}
    0,                       !- Vertex 3 Y-coordinate {m}
    3.5,                     !- Vertex 3 Z-coordinate {m}
    0,                       !- Vertex 4 X-coordinate {m}
    -6.36,                   !- Vertex 4 Y-coordinate {m}
    3;                       !- Vertex 4 Z-coordinate {m}

BuildingSurface:Detailed,
    ParedCub6Este,           !- Name
    Wall,                    !- Surface Type
    Tabique,                 !- Construction Name
    TZCub6,                  !- Zone Name
    Surface,                 !- Outside Boundary Condition
    ParedCub7Oeste,          !- Outside Boundary Condition Object
    NoSun,                   !- Sun Exposure
    NoWind,                  !- Wind Exposure
    ,                        !- View Factor to Ground
    ,                        !- Number of Vertices
    0,                       !- Vertex 1 X-coordinate {m}
    6.36,                    !- Vertex 1 Y-coordinate {m}
    3.5,                     !- Vertex 1 Z-coordinate {m}
    0,                       !- Vertex 2 X-coordinate {m}
    0,                       !- Vertex 2 Y-coordinate {m}
    3,                       !- Vertex 2 Z-coordinate {m}
    0,                       !- Vertex 3 X-coordinate {m}
    0,                       !- Vertex 3 Y-coordinate {m}
    0,                       !- Vertex 3 Z-coordinate {m}
    0,                       !- Vertex 4 X-coordinate {m}
    6.36,                    !- Vertex 4 Y-coordinate {m}
    1.20222401955682e-031;   !- Vertex 4 Z-coordinate {m}

BuildingSurface:Detailed,
    ParedCub6Norte,          !- Name
    Wall,                    !- Surface Type
    Tabique,                 !- Construction Name
    TZCub6,                  !- Zone Name
    Outdoors,                !- Outside Boundary Condition
    ,                        !- Outside Boundary Condition Object
    SunExposed,              !- Sun Exposure
    WindExposed,             !- Wind Exposure
    ,                        !- View Factor to Ground
    ,                        !- Number of Vertices
    0,                       !- Vertex 1 X-coordinate {m}
    6.36,                    !- Vertex 1 Y-coordinate {m}
    3.5,                     !- Vertex 1 Z-coordinate {m}
    0,                       !- Vertex 2 X-coordinate {m}
    6.36,                    !- Vertex 2 Y-coordinate {m}
    1.20222401955682e-031,   !- Vertex 2 Z-coordinate {m}
    -3.5,                    !- Vertex 3 X-coordinate {m}
    6.36,                    !- Vertex 3 Y-coordinate {m}
    1.20222401955682e-031,   !- Vertex 3 Z-coordinate {m}
    -3.5,                    !- Vertex 4 X-coordinate {m}
    6.36,                    !- Vertex 4 Y-coordinate {m}
    3.5;                     !- Vertex 4 Z-coordinate {m}

BuildingSurface:Detailed,
    ParedCub6Oeste,          !- Name
    Wall,                    !- Surface Type
    Tabique,                 !- Construction Name
    TZCub6,                  !- Zone Name
    Surface,                 !- Outside Boundary Condition
    ParedCub5Este,           !- Outside Boundary Condition Object
    NoSun,                   !- Sun Exposure
    NoWind,                  !- Wind Exposure
    ,                        !- View Factor to Ground
    ,                        !- Number of Vertices
    -3.5,                    !- Vertex 1 X-coordinate {m}
    6.36,                    !- Vertex 1 Y-coordinate {m}
    3.5,                     !- Vertex 1 Z-coordinate {m}
    -3.5,                    !- Vertex 2 X-coordinate {m}
    6.36,                    !- Vertex 2 Y-coordinate {m}
    1.20222401955682e-031,   !- Vertex 2 Z-coordinate {m}
    -3.5,                    !- Vertex 3 X-coordinate {m}
    0,                       !- Vertex 3 Y-coordinate {m}
    0,                       !- Vertex 3 Z-coordinate {m}
    -3.5,                    !- Vertex 4 X-coordinate {m}
    0,                       !- Vertex 4 Y-coordinate {m}
    3;                       !- Vertex 4 Z-coordinate {m}

BuildingSurface:Detailed,
    ParedCub6Sur,            !- Name
    Wall,                    !- Surface Type
    Tabique,                 !- Construction Name
    TZCub6,                  !- Zone Name
    Outdoors,                !- Outside Boundary Condition
    ,                        !- Outside Boundary Condition Object
    SunExposed,              !- Sun Exposure
    WindExposed,             !- Wind Exposure
    ,                        !- View Factor to Ground
    ,                        !- Number of Vertices
    -3.5,                    !- Vertex 1 X-coordinate {m}
    0,                       !- Vertex 1 Y-coordinate {m}
    3,                       !- Vertex 1 Z-coordinate {m}
    -3.5,                    !- Vertex 2 X-coordinate {m}
    0,                       !- Vertex 2 Y-coordinate {m}
    0,                       !- Vertex 2 Z-coordinate {m}
    0,                       !- Vertex 3 X-coordinate {m}
    0,                       !- Vertex 3 Y-coordinate {m}
    0,                       !- Vertex 3 Z-coordinate {m}
    0,                       !- Vertex 4 X-coordinate {m}
    0,                       !- Vertex 4 Y-coordinate {m}
    3;                       !- Vertex 4 Z-coordinate {m}

BuildingSurface:Detailed,
    Surface 19,              !- Name
    Floor,                   !- Surface Type
    CAD,                     !- Construction Name
    TZCub6,                  !- Zone Name
    Ground,                  !- Outside Boundary Condition
    ,                        !- Outside Boundary Condition Object
    NoSun,                   !- Sun Exposure
    NoWind,                  !- Wind Exposure
    ,                        !- View Factor to Ground
    ,                        !- Number of Vertices
    0,                       !- Vertex 1 X-coordinate {m}
    6.36,                    !- Vertex 1 Y-coordinate {m}
    1.20222401955682e-031,   !- Vertex 1 Z-coordinate {m}
    0,                       !- Vertex 2 X-coordinate {m}
    0,                       !- Vertex 2 Y-coordinate {m}
    0,                       !- Vertex 2 Z-coordinate {m}
    -3.5,                    !- Vertex 3 X-coordinate {m}